File Galpon bodega electoral.$2k was saved on m/d/yy at h:mm:ss
 
TABLE:  "ACTIVE DEGREES OF FREEDOM"
   UX=Yes   UY=Yes   UZ=Yes   RX=Yes   RY=Yes   RZ=Yes
 
TABLE:  "CONNECTIVITY - FRAME"
   Frame=1   JointI=1   JointJ=49   IsCurved=No
   Frame=2   JointI=49   JointJ=2   IsCurved=No
   Frame=3   JointI=3   JointJ=50   IsCurved=No
   Frame=4   JointI=50   JointJ=4   IsCurved=No
   Frame=5   JointI=5   JointJ=325   IsCurved=No
   Frame=6   JointI=325   JointJ=51   IsCurved=No
   Frame=7   JointI=51   JointJ=6   IsCurved=No
   Frame=8   JointI=7   JointJ=326   IsCurved=No
   Frame=9   JointI=326   JointJ=52   IsCurved=No
   Frame=10   JointI=52   JointJ=8   IsCurved=No
   Frame=11   JointI=9   JointJ=53   IsCurved=No
   Frame=12   JointI=53   JointJ=10   IsCurved=No
   Frame=13   JointI=11   JointJ=54   IsCurved=No
   Frame=14   JointI=54   JointJ=12   IsCurved=No
   Frame=15   JointI=13   JointJ=357   IsCurved=No
   Frame=16   JointI=357   JointJ=55   IsCurved=No
   Frame=17   JointI=55   JointJ=14   IsCurved=No
   Frame=18   JointI=15   JointJ=358   IsCurved=No
   Frame=19   JointI=358   JointJ=71   IsCurved=No
   Frame=20   JointI=71   JointJ=16   IsCurved=No
# ... 1409 like lines cut
 
TABLE:  "CONNECTIVITY - AREA"
   Area=1430   NumJoints=4   Joint1=49   Joint2=383   Joint3=384   Joint4=385
   Area=1431   NumJoints=4   Joint1=385   Joint2=384   Joint3=386   Joint4=387
   Area=1432   NumJoints=4   Joint1=387   Joint2=386   Joint3=388   Joint4=389
   Area=1433   NumJoints=4   Joint1=389   Joint2=388   Joint3=390   Joint4=391
   Area=1434   NumJoints=4   Joint1=391   Joint2=390   Joint3=392   Joint4=50
   Area=1435   NumJoints=4   Joint1=383   Joint2=129   Joint3=393   Joint4=384
   Area=1436   NumJoints=4   Joint1=384   Joint2=393   Joint3=394   Joint4=386
   Area=1437   NumJoints=4   Joint1=386   Joint2=394   Joint3=395   Joint4=388
   Area=1438   NumJoints=4   Joint1=388   Joint2=395   Joint3=396   Joint4=390
   Area=1439   NumJoints=4   Joint1=390   Joint2=396   Joint3=130   Joint4=392
   Area=1440   NumJoints=4   Joint1=129   Joint2=397   Joint3=398   Joint4=393
   Area=1441   NumJoints=4   Joint1=393   Joint2=398   Joint3=399   Joint4=394
   Area=1442   NumJoints=4   Joint1=394   Joint2=399   Joint3=400   Joint4=395
   Area=1443   NumJoints=4   Joint1=395   Joint2=400   Joint3=401   Joint4=396
   Area=1444   NumJoints=4   Joint1=396   Joint2=401   Joint3=74   Joint4=130
   Area=1445   NumJoints=4   Joint1=397   Joint2=131   Joint3=402   Joint4=398
   Area=1446   NumJoints=4   Joint1=398   Joint2=402   Joint3=403   Joint4=399
   Area=1447   NumJoints=4   Joint1=399   Joint2=403   Joint3=404   Joint4=400
   Area=1448   NumJoints=4   Joint1=400   Joint2=404   Joint3=405   Joint4=401
   Area=1449   NumJoints=4   Joint1=401   Joint2=405   Joint3=132   Joint4=74
# ... 1654 like lines cut
 
TABLE:  "COORDINATE SYSTEMS"
   Name=GLOBAL   Type=Cartesian   X=0   Y=0   Z=0   AboutZ=0   AboutY=0   AboutX=0
 
TABLE:  "DATABASE FORMAT TYPES"
   UnitsCurr=Yes   OverrideE=No
 
TABLE:  "FRAME SECTION ASSIGNMENTS"
   Frame=1   AutoSelect=N.A.   AnalSect=SEC1   MatProp=Default
   Frame=2   AutoSelect=N.A.   AnalSect=SEC1   MatProp=Default
   Frame=3   AutoSelect=N.A.   AnalSect=SEC1   MatProp=Default
   Frame=4   AutoSelect=N.A.   AnalSect=SEC1   MatProp=Default
   Frame=5   AutoSelect=N.A.   AnalSect=SEC1   MatProp=Default
   Frame=6   AutoSelect=N.A.   AnalSect=SEC1   MatProp=Default
   Frame=7   AutoSelect=N.A.   AnalSect=SEC1   MatProp=Default
   Frame=8   AutoSelect=N.A.   AnalSect=SEC1   MatProp=Default
   Frame=9   AutoSelect=N.A.   AnalSect=SEC1   MatProp=Default
   Frame=10   AutoSelect=N.A.   AnalSect=SEC1   MatProp=Default
   Frame=11   AutoSelect=N.A.   AnalSect=SEC1   MatProp=Default
   Frame=12   AutoSelect=N.A.   AnalSect=SEC1   MatProp=Default
   Frame=13   AutoSelect=N.A.   AnalSect=SEC1   MatProp=Default
   Frame=14   AutoSelect=N.A.   AnalSect=SEC1   MatProp=Default
   Frame=15   AutoSelect=N.A.   AnalSect=SEC1   MatProp=Default
   Frame=16   AutoSelect=N.A.   AnalSect=SEC1   MatProp=Default
   Frame=17   AutoSelect=N.A.   AnalSect=SEC1   MatProp=Default
   Frame=18   AutoSelect=N.A.   AnalSect=SEC1   MatProp=Default
   Frame=19   AutoSelect=N.A.   AnalSect=SEC1   MatProp=Default
   Frame=20   AutoSelect=N.A.   AnalSect=SEC1   MatProp=Default
# ... 1409 like lines cut
 
TABLE:  "FRAME SECTION PROPERTIES 01 - GENERAL"
   SectionName=SEC1   Material=MAT_200000000_n0.3000   Shape=General   t3=0.2428153245   t2=0.04031858377   Area=0.00978997   TorsConst=5.66231000e-5   I33=4.81008000e-5   I22=4.81008000e-5   I23=0   AS2=0.00815831   AS3=0.00815831 _
        Color=Blue   FromFile=No   AMod=1   A2Mod=1   A3Mod=1   JMod=1   I2Mod=1   I3Mod=1   MMod=1   WMod=1
   SectionName=SEC2   Material=MAT_200000000_n0.3000   Shape=General   t3=0.3569856738   t2=0.008207612279   Area=0.00293   TorsConst=4.67415000e-8   I33=3.11163000e-5   I22=1.77710000e-6   I23=0   AS2=0.00124179   AS3=0.00167079 _
        Color=Blue   FromFile=No   AMod=1   A2Mod=1   A3Mod=1   JMod=1   I2Mod=1   I3Mod=1   MMod=1   WMod=1
   SectionName=SEC3   Material=MAT_200000000_n0.3000   Shape=General   t3=0.8596123157   t2=0.01675173766   Area=0.0144   TorsConst=1.32088000e-6   I33=8.86720000e-4   I22=3.55400000e-5   I23=0   AS2=0.00595486   AS3=0.00834209 _
        Color=Blue   FromFile=No   AMod=1   A2Mod=1   A3Mod=1   JMod=1   I2Mod=1   I3Mod=1   MMod=1   WMod=1
   SectionName=SEC4   Material=MAT_200000000_n0.3000   Shape=General   t3=0.5781522888   t2=0.0120245135   Area=0.006952   TorsConst=2.46890000e-7   I33=1.93648000e-4   I22=1.16747000e-5   I23=0   AS2=0.0027959   AS3=0.0038785 _
        Color=Blue   FromFile=No   AMod=1   A2Mod=1   A3Mod=1   JMod=1   I2Mod=1   I3Mod=1   MMod=1   WMod=1
   SectionName=SEC5   Material=MAT_200000000_n0.3000   Shape=General   t3=0.2874336362   t2=0.008767241138   Area=0.00252   TorsConst=4.11831000e-8   I33=1.73498000e-5   I22=1.33525000e-6   I23=0   AS2=9.84022000e-4   AS3=0.00152628 _
        Color=Blue   FromFile=No   AMod=1   A2Mod=1   A3Mod=1   JMod=1   I2Mod=1   I3Mod=1   MMod=1   WMod=1
   SectionName=SEC6   Material=MAT_200000000_n0.3000   Shape=General   t3=0.2524149796   t2=0.004627300654   Area=0.001168   TorsConst=6.23294000e-9   I33=6.20143000e-6   I22=2.23492000e-7   I23=0   AS2=7.64890000e-4   AS3=3.53620000e-4 _
        Color=Blue   FromFile=No   AMod=1   A2Mod=1   A3Mod=1   JMod=1   I2Mod=1   I3Mod=1   MMod=1   WMod=1
   SectionName=SEC7   Material=MAT_200000000_n0.3000   Shape=General   t3=0.04264962825   t2=0.01425569284   Area=6.08000000e-4   TorsConst=3.18257000e-9   I33=9.21622000e-8   I22=6.94443000e-7   I23=0   AS2=2.85282000e-4   AS3=6.08000000e-4 _
        Color=Blue   FromFile=No   AMod=1   A2Mod=1   A3Mod=1   JMod=1   I2Mod=1   I3Mod=1   MMod=1   WMod=1
   SectionName=SEC8   Material=MAT_200000000_n0.3000   Shape=General   t3=0.1995532487   t2=0.002640057245   Area=5.26832000e-4   TorsConst=7.19534000e-10   I33=1.74827000e-6   I22=1.66100000e-7   I23=0   AS2=2.76000000e-4   AS3=1.52000000e-4 _
        Color=Blue   FromFile=No   AMod=1   A2Mod=1   A3Mod=1   JMod=1   I2Mod=1   I3Mod=1   MMod=1   WMod=1
   SectionName=SEC9   Material=MAT_200000000_n0.3000   Shape=General   t3=0.249576725   t2=0.01384744511   Area=0.003456   TorsConst=2.39293000e-5   I33=1.79391000e-5   I22=5.99027000e-6   I23=0   AS2=0.00288   AS3=0.00288 _
        Color=Blue   FromFile=No   AMod=1   A2Mod=1   A3Mod=1   JMod=1   I2Mod=1   I3Mod=1   MMod=1   WMod=1
 
TABLE:  "FRAME LOCAL AXES ASSIGNMENTS 1 - TYPICAL"
   Frame=975   Angle=270   AdvanceAxes=No
   Frame=976   Angle=270   AdvanceAxes=No
   Frame=977   Angle=270   AdvanceAxes=No
   Frame=978   Angle=270   AdvanceAxes=No
   Frame=979   Angle=270   AdvanceAxes=No
   Frame=980   Angle=270   AdvanceAxes=No
   Frame=981   Angle=270   AdvanceAxes=No
   Frame=982   Angle=270   AdvanceAxes=No
   Frame=983   Angle=270   AdvanceAxes=No
   Frame=984   Angle=270   AdvanceAxes=No
   Frame=985   Angle=270   AdvanceAxes=No
   Frame=986   Angle=270   AdvanceAxes=No
   Frame=987   Angle=270   AdvanceAxes=No
   Frame=988   Angle=270   AdvanceAxes=No
   Frame=989   Angle=90   AdvanceAxes=No
   Frame=990   Angle=90   AdvanceAxes=No
   Frame=991   Angle=90   AdvanceAxes=No
   Frame=992   Angle=90   AdvanceAxes=No
   Frame=993   Angle=90   AdvanceAxes=No
   Frame=994   Angle=90   AdvanceAxes=No
# ... 136 like lines cut
 
TABLE:  "AREA SECTION ASSIGNMENTS"
   Area=1430   Section=SSEC1   MatProp=Default
   Area=1431   Section=SSEC1   MatProp=Default
   Area=1432   Section=SSEC1   MatProp=Default
   Area=1433   Section=SSEC1   MatProp=Default
   Area=1434   Section=SSEC1   MatProp=Default
   Area=1435   Section=SSEC1   MatProp=Default
   Area=1436   Section=SSEC1   MatProp=Default
   Area=1437   Section=SSEC1   MatProp=Default
   Area=1438   Section=SSEC1   MatProp=Default
   Area=1439   Section=SSEC1   MatProp=Default
   Area=1440   Section=SSEC1   MatProp=Default
   Area=1441   Section=SSEC1   MatProp=Default
   Area=1442   Section=SSEC1   MatProp=Default
   Area=1443   Section=SSEC1   MatProp=Default
   Area=1444   Section=SSEC1   MatProp=Default
   Area=1445   Section=SSEC1   MatProp=Default
   Area=1446   Section=SSEC1   MatProp=Default
   Area=1447   Section=SSEC1   MatProp=Default
   Area=1448   Section=SSEC1   MatProp=Default
   Area=1449   Section=SSEC1   MatProp=Default
# ... 1654 like lines cut
 
TABLE:  "AREA SECTION PROPERTIES"
   Section=SSEC1   Material=MAT_21737100_n0.2000   MatAngle=0   AreaType=Shell   Type=Shell-Thin   DrillDOF=Yes   Thickness=0.12   BendThick=0.12   Color=Cyan
 
TABLE:  "JOINT COORDINATES"
   Joint=1   CoordSys=GLOBAL   CoordType=Cartesian   XorR=0   Y=0   Z=0   SpecialJt=No
   Joint=2   CoordSys=GLOBAL   CoordType=Cartesian   XorR=0   Y=0   Z=8   SpecialJt=No
   Joint=3   CoordSys=GLOBAL   CoordType=Cartesian   XorR=0   Y=3.2   Z=0   SpecialJt=No
   Joint=4   CoordSys=GLOBAL   CoordType=Cartesian   XorR=0   Y=3.2   Z=8   SpecialJt=No
   Joint=5   CoordSys=GLOBAL   CoordType=Cartesian   XorR=0   Y=12.42   Z=0   SpecialJt=No
   Joint=6   CoordSys=GLOBAL   CoordType=Cartesian   XorR=0   Y=12.42   Z=8   SpecialJt=No
   Joint=7   CoordSys=GLOBAL   CoordType=Cartesian   XorR=0   Y=14.74   Z=0   SpecialJt=No
   Joint=8   CoordSys=GLOBAL   CoordType=Cartesian   XorR=0   Y=14.74   Z=8   SpecialJt=No
   Joint=9   CoordSys=GLOBAL   CoordType=Cartesian   XorR=5.025   Y=0   Z=0   SpecialJt=No
   Joint=10   CoordSys=GLOBAL   CoordType=Cartesian   XorR=5.025   Y=0   Z=8   SpecialJt=No
   Joint=11   CoordSys=GLOBAL   CoordType=Cartesian   XorR=5.025   Y=3.2   Z=0   SpecialJt=No
   Joint=12   CoordSys=GLOBAL   CoordType=Cartesian   XorR=5.025   Y=3.2   Z=8   SpecialJt=No
   Joint=13   CoordSys=GLOBAL   CoordType=Cartesian   XorR=5.025   Y=12.42   Z=0   SpecialJt=No
   Joint=14   CoordSys=GLOBAL   CoordType=Cartesian   XorR=5.025   Y=12.42   Z=8   SpecialJt=No
   Joint=15   CoordSys=GLOBAL   CoordType=Cartesian   XorR=5.025   Y=14.74   Z=0   SpecialJt=No
   Joint=16   CoordSys=GLOBAL   CoordType=Cartesian   XorR=5.025   Y=14.74   Z=8   SpecialJt=No
   Joint=17   CoordSys=GLOBAL   CoordType=Cartesian   XorR=10.05   Y=0   Z=0   SpecialJt=No
   Joint=18   CoordSys=GLOBAL   CoordType=Cartesian   XorR=10.05   Y=0   Z=8   SpecialJt=No
   Joint=19   CoordSys=GLOBAL   CoordType=Cartesian   XorR=10.05   Y=3.2   Z=0   SpecialJt=No
   Joint=20   CoordSys=GLOBAL   CoordType=Cartesian   XorR=10.05   Y=3.2   Z=8   SpecialJt=No
# ... 1998 like lines cut
 
TABLE:  "JOINT RESTRAINT ASSIGNMENTS"
   Joint=1   U1=Yes   U2=Yes   U3=Yes   R1=Yes   R2=Yes   R3=Yes
   Joint=3   U1=Yes   U2=Yes   U3=Yes   R1=Yes   R2=Yes   R3=Yes
   Joint=5   U1=Yes   U2=Yes   U3=Yes   R1=Yes   R2=Yes   R3=Yes
   Joint=7   U1=Yes   U2=Yes   U3=Yes   R1=Yes   R2=Yes   R3=Yes
   Joint=9   U1=Yes   U2=Yes   U3=Yes   R1=Yes   R2=Yes   R3=Yes
   Joint=11   U1=Yes   U2=Yes   U3=Yes   R1=Yes   R2=Yes   R3=Yes
   Joint=13   U1=Yes   U2=Yes   U3=Yes   R1=Yes   R2=Yes   R3=Yes
   Joint=15   U1=Yes   U2=Yes   U3=Yes   R1=Yes   R2=Yes   R3=Yes
   Joint=17   U1=Yes   U2=Yes   U3=Yes   R1=Yes   R2=Yes   R3=Yes
   Joint=19   U1=Yes   U2=Yes   U3=Yes   R1=Yes   R2=Yes   R3=Yes
   Joint=21   U1=Yes   U2=Yes   U3=Yes   R1=Yes   R2=Yes   R3=Yes
   Joint=23   U1=Yes   U2=Yes   U3=Yes   R1=Yes   R2=Yes   R3=Yes
   Joint=25   U1=Yes   U2=Yes   U3=Yes   R1=Yes   R2=Yes   R3=Yes
   Joint=27   U1=Yes   U2=Yes   U3=Yes   R1=Yes   R2=Yes   R3=Yes
   Joint=29   U1=Yes   U2=Yes   U3=Yes   R1=Yes   R2=Yes   R3=Yes
   Joint=31   U1=Yes   U2=Yes   U3=Yes   R1=Yes   R2=Yes   R3=Yes
   Joint=33   U1=Yes   U2=Yes   U3=Yes   R1=Yes   R2=Yes   R3=Yes
   Joint=35   U1=Yes   U2=Yes   U3=Yes   R1=Yes   R2=Yes   R3=Yes
   Joint=37   U1=Yes   U2=Yes   U3=Yes   R1=Yes   R2=Yes   R3=Yes
   Joint=39   U1=Yes   U2=Yes   U3=Yes   R1=Yes   R2=Yes   R3=Yes
# ... 8 like lines cut
 
TABLE:  "LOAD PATTERN DEFINITIONS"
   LoadPat=DEAD   DesignType=Dead   SelfWtMult=0
 
TABLE:  "LOAD CASE DEFINITIONS"
   Case=DEAD   Type=LinStatic   InitialCond=Zero   DesTypeOpt="Prog Det"   DesignType=Dead   DesActOpt="Prog Det"   DesignAct=Non-Composite   AutoType=None   RunCase=Yes
 
TABLE:  "CASE - STATIC 1 - LOAD ASSIGNMENTS"
   Case=DEAD   LoadType="Load pattern"   LoadName=DEAD   LoadSF=1
 
TABLE:  "JOINT LOADS - FORCE"
   Joint=8   LoadPat=DEAD   CoordSys=GLOBAL   F1=0   F2=0   F3=-4.365849985   M1=0   M2=1.347771047   M3=0
   Joint=16   LoadPat=DEAD   CoordSys=GLOBAL   F1=0   F2=0   F3=-6.078339487   M1=0   M2=0   M3=0
   Joint=24   LoadPat=DEAD   CoordSys=GLOBAL   F1=0   F2=0   F3=-6.078339487   M1=0   M2=0   M3=0
   Joint=32   LoadPat=DEAD   CoordSys=GLOBAL   F1=0   F2=0   F3=-6.078339487   M1=0   M2=1.77635684e-15   M3=0
   Joint=40   LoadPat=DEAD   CoordSys=GLOBAL   F1=0   F2=0   F3=-6.591234352   M1=0   M2=0.9282189708   M3=0
   Joint=48   LoadPat=DEAD   CoordSys=GLOBAL   F1=0   F2=0   F3=-4.87874485   M1=0   M2=-2.275990018   M3=0
   Joint=130   LoadPat=DEAD   CoordSys=GLOBAL   F1=0   F2=0   F3=-4.716760793   M1=0   M2=0.2925631128   M3=0
   Joint=74   LoadPat=DEAD   CoordSys=GLOBAL   F1=0   F2=0   F3=-4.087237054   M1=0   M2=-0.2925631128   M3=0
   Joint=185   LoadPat=DEAD   CoordSys=GLOBAL   F1=0   F2=0   F3=-1.79478359   M1=0   M2=1.347771047   M3=0
   Joint=208   LoadPat=DEAD   CoordSys=GLOBAL   F1=0   F2=0   F3=-3.507273093   M1=0   M2=0   M3=0
   Joint=186   LoadPat=DEAD   CoordSys=GLOBAL   F1=0   F2=0   F3=-3.495849755   M1=0   M2=2.695651514   M3=0
   Joint=209   LoadPat=DEAD   CoordSys=GLOBAL   F1=0   F2=0   F3=-6.817748769   M1=0   M2=0   M3=0
   Joint=188   LoadPat=DEAD   CoordSys=GLOBAL   F1=0   F2=0   F3=-3.492318492   M1=0   M2=2.695651514   M3=0
   Joint=211   LoadPat=DEAD   CoordSys=GLOBAL   F1=0   F2=0   F3=-6.814217506   M1=0   M2=0   M3=0
   Joint=190   LoadPat=DEAD   CoordSys=GLOBAL   F1=0   F2=0   F3=-3.488733098   M1=0   M2=2.695546303   M3=0
   Joint=213   LoadPat=DEAD   CoordSys=GLOBAL   F1=0   F2=0   F3=-6.810506487   M1=0   M2=0   M3=0
   Joint=192   LoadPat=DEAD   CoordSys=GLOBAL   F1=0   F2=0   F3=-3.485506644   M1=0   M2=2.695651514   M3=0
   Joint=215   LoadPat=DEAD   CoordSys=GLOBAL   F1=0   F2=0   F3=-6.807405658   M1=0   M2=0   M3=0
   Joint=194   LoadPat=DEAD   CoordSys=GLOBAL   F1=0   F2=0   F3=-3.482256047   M1=0   M2=2.695651514   M3=0
   Joint=217   LoadPat=DEAD   CoordSys=GLOBAL   F1=0   F2=0   F3=-6.804155062   M1=0   M2=0   M3=0
# ... 1998 like lines cut
 
TABLE:  "FRAME LOADS - DISTRIBUTED"
   Frame=286   LoadPat=DEAD   CoordSys=GLOBAL   Type=Force   Dir=Z   DistType=RelDist   RelDistA=0   RelDistB=1   AbsDistA=0   AbsDistB=0.995   FOverLA=-3.54613   FOverLB=-3.54613
   Frame=1269   LoadPat=DEAD   CoordSys=GLOBAL   Type=Force   Dir=Z   DistType=RelDist   RelDistA=0   RelDistB=1   AbsDistA=0   AbsDistB=5.025   FOverLA=-0.640509   FOverLB=-0.640509
   Frame=1270   LoadPat=DEAD   CoordSys=GLOBAL   Type=Force   Dir=Z   DistType=RelDist   RelDistA=0   RelDistB=1   AbsDistA=0   AbsDistB=5.025   FOverLA=-0.640509   FOverLB=-0.640509
   Frame=1271   LoadPat=DEAD   CoordSys=GLOBAL   Type=Force   Dir=Z   DistType=RelDist   RelDistA=0   RelDistB=1   AbsDistA=0   AbsDistB=5.025   FOverLA=-0.640509   FOverLB=-0.640509
   Frame=1272   LoadPat=DEAD   CoordSys=GLOBAL   Type=Force   Dir=Z   DistType=RelDist   RelDistA=0   RelDistB=1   AbsDistA=0   AbsDistB=5.025   FOverLA=-0.640509   FOverLB=-0.640509
   Frame=1273   LoadPat=DEAD   CoordSys=GLOBAL   Type=Force   Dir=Z   DistType=RelDist   RelDistA=0   RelDistB=1   AbsDistA=0   AbsDistB=6.53   FOverLA=-0.640509   FOverLB=-0.640509
   Frame=1274   LoadPat=DEAD   CoordSys=GLOBAL   Type=Force   Dir=Z   DistType=RelDist   RelDistA=0   RelDistB=1   AbsDistA=0   AbsDistB=5.025   FOverLA=-1.28107   FOverLB=-1.28107
   Frame=1275   LoadPat=DEAD   CoordSys=GLOBAL   Type=Force   Dir=Z   DistType=RelDist   RelDistA=0   RelDistB=1   AbsDistA=0   AbsDistB=5.025   FOverLA=-1.28107   FOverLB=-1.28107
   Frame=1276   LoadPat=DEAD   CoordSys=GLOBAL   Type=Force   Dir=Z   DistType=RelDist   RelDistA=0   RelDistB=1   AbsDistA=0   AbsDistB=5.025   FOverLA=-1.28107   FOverLB=-1.28107
   Frame=1277   LoadPat=DEAD   CoordSys=GLOBAL   Type=Force   Dir=Z   DistType=RelDist   RelDistA=0   RelDistB=1   AbsDistA=0   AbsDistB=5.025   FOverLA=-1.28107   FOverLB=-1.28107
   Frame=1278   LoadPat=DEAD   CoordSys=GLOBAL   Type=Force   Dir=Z   DistType=RelDist   RelDistA=0   RelDistB=1   AbsDistA=0   AbsDistB=6.53   FOverLA=-1.28107   FOverLB=-1.28107
   Frame=1279   LoadPat=DEAD   CoordSys=GLOBAL   Type=Force   Dir=Z   DistType=RelDist   RelDistA=0   RelDistB=1   AbsDistA=0   AbsDistB=5.025   FOverLA=-1.28107   FOverLB=-1.28107
   Frame=1280   LoadPat=DEAD   CoordSys=GLOBAL   Type=Force   Dir=Z   DistType=RelDist   RelDistA=0   RelDistB=1   AbsDistA=0   AbsDistB=5.025   FOverLA=-1.28107   FOverLB=-1.28107
   Frame=1281   LoadPat=DEAD   CoordSys=GLOBAL   Type=Force   Dir=Z   DistType=RelDist   RelDistA=0   RelDistB=1   AbsDistA=0   AbsDistB=5.025   FOverLA=-1.28107   FOverLB=-1.28107
   Frame=1282   LoadPat=DEAD   CoordSys=GLOBAL   Type=Force   Dir=Z   DistType=RelDist   RelDistA=0   RelDistB=1   AbsDistA=0   AbsDistB=5.025   FOverLA=-1.28107   FOverLB=-1.28107
   Frame=1283   LoadPat=DEAD   CoordSys=GLOBAL   Type=Force   Dir=Z   DistType=RelDist   RelDistA=0   RelDistB=1   AbsDistA=0   AbsDistB=6.53   FOverLA=-1.28107   FOverLB=-1.28107
   Frame=1284   LoadPat=DEAD   CoordSys=GLOBAL   Type=Force   Dir=Z   DistType=RelDist   RelDistA=0   RelDistB=1   AbsDistA=0   AbsDistB=5.025   FOverLA=-1.28102   FOverLB=-1.28102
   Frame=1285   LoadPat=DEAD   CoordSys=GLOBAL   Type=Force   Dir=Z   DistType=RelDist   RelDistA=0   RelDistB=1   AbsDistA=0   AbsDistB=5.025   FOverLA=-1.28102   FOverLB=-1.28102
   Frame=1286   LoadPat=DEAD   CoordSys=GLOBAL   Type=Force   Dir=Z   DistType=RelDist   RelDistA=0   RelDistB=1   AbsDistA=0   AbsDistB=5.025   FOverLA=-1.28102   FOverLB=-1.28102
   Frame=1287   LoadPat=DEAD   CoordSys=GLOBAL   Type=Force   Dir=Z   DistType=RelDist   RelDistA=0   RelDistB=1   AbsDistA=0   AbsDistB=5.025   FOverLA=-1.28102   FOverLB=-1.28102
# ... 76 like lines cut
 
TABLE:  "MATERIAL PROPERTIES 01 - GENERAL"
   Material=MAT_200000000_n0.3000   Type=Concrete   SymType=Isotropic   TempDepend=No   Color=Green
   Material=MAT_21737100_n0.2000   Type=Concrete   SymType=Isotropic   TempDepend=No   Color=Green
 
TABLE:  "MATERIAL PROPERTIES 02 - BASIC MECHANICAL PROPERTIES"
   Material=MAT_200000000_n0.3000   UnitWeight=129.837312   UnitMass=13.2352   E1=2.00000000e+8   G12=7.69230769e+7   U12=0.3   A1=9.9E-06
   Material=MAT_21737100_n0.2000   UnitWeight=24.0345   UnitMass=2.45   E1=2.17371000e+7   G12=9.05712500e+6   U12=0.2   A1=9.9E-06
 
TABLE:  "MATERIAL PROPERTIES 03B - CONCRETE DATA"
   Material=MAT_200000000_n0.3000   Fc=27579   eFc=27579   LtWtConc=No   SSCurveOpt=Mander   SSHysType=Takeda   SFc=0.00222   SCap=0.005   FinalSlope=-0.1   FAngle=0   DAngle=0
   Material=MAT_21737100_n0.2000   Fc=27579   eFc=27579   LtWtConc=No   SSCurveOpt=Mander   SSHysType=Takeda   SFc=0.00222   SCap=0.005   FinalSlope=-0.1   FAngle=0   DAngle=0
 
TABLE:  "PROGRAM CONTROL"
   ProgramName=SAP2000   Version=24.1.0   CurrUnits="KN, m, C"   SteelCode="AISC 360-16"   ConcCode="ACI 318-19"   AlumCode="AA 2015"   ColdCode=AISI-16   RegenHinge=Yes
 
END TABLE DATA
