File Hekatan heks.$2k was saved on m/d/yy at h:mm:ss
 
TABLE:  "ACTIVE DEGREES OF FREEDOM"
   UX=Yes   UY=Yes   UZ=Yes   RX=Yes   RY=Yes   RZ=Yes
 
TABLE:  "CONNECTIVITY - FRAME"
   Frame=1   JointI=13   JointJ=26   IsCurved=No
   Frame=2   JointI=39   JointJ=52   IsCurved=No
   Frame=3   JointI=65   JointJ=78   IsCurved=No
   Frame=4   JointI=91   JointJ=104   IsCurved=No
   Frame=5   JointI=117   JointJ=130   IsCurved=No
   Frame=6   JointI=143   JointJ=156   IsCurved=No
   Frame=7   JointI=169   JointJ=182   IsCurved=No
   Frame=8   JointI=195   JointJ=208   IsCurved=No
   Frame=9   JointI=221   JointJ=234   IsCurved=No
   Frame=10   JointI=26   JointJ=52   IsCurved=No
   Frame=11   JointI=52   JointJ=78   IsCurved=No
   Frame=12   JointI=104   JointJ=130   IsCurved=No
   Frame=13   JointI=130   JointJ=156   IsCurved=No
   Frame=14   JointI=182   JointJ=208   IsCurved=No
   Frame=15   JointI=208   JointJ=234   IsCurved=No
   Frame=16   JointI=26   JointJ=104   IsCurved=No
   Frame=17   JointI=104   JointJ=182   IsCurved=No
   Frame=18   JointI=52   JointJ=130   IsCurved=No
   Frame=19   JointI=130   JointJ=208   IsCurved=No
   Frame=20   JointI=78   JointJ=156   IsCurved=No
   Frame=21   JointI=156   JointJ=234   IsCurved=No
 
TABLE:  "CONNECTIVITY - AREA"
   Area=22   NumJoints=4   Joint1=1   Joint2=2   Joint3=7   Joint4=6
   Area=23   NumJoints=4   Joint1=2   Joint2=3   Joint3=8   Joint4=7
   Area=24   NumJoints=4   Joint1=3   Joint2=4   Joint3=9   Joint4=8
   Area=25   NumJoints=4   Joint1=4   Joint2=5   Joint3=10   Joint4=9
   Area=26   NumJoints=4   Joint1=6   Joint2=7   Joint3=12   Joint4=11
   Area=27   NumJoints=4   Joint1=7   Joint2=8   Joint3=13   Joint4=12
   Area=28   NumJoints=4   Joint1=8   Joint2=9   Joint3=14   Joint4=13
   Area=29   NumJoints=4   Joint1=9   Joint2=10   Joint3=15   Joint4=14
   Area=30   NumJoints=4   Joint1=11   Joint2=12   Joint3=17   Joint4=16
   Area=31   NumJoints=4   Joint1=12   Joint2=13   Joint3=18   Joint4=17
   Area=32   NumJoints=4   Joint1=13   Joint2=14   Joint3=19   Joint4=18
   Area=33   NumJoints=4   Joint1=14   Joint2=15   Joint3=20   Joint4=19
   Area=34   NumJoints=4   Joint1=16   Joint2=17   Joint3=22   Joint4=21
   Area=35   NumJoints=4   Joint1=17   Joint2=18   Joint3=23   Joint4=22
   Area=36   NumJoints=4   Joint1=18   Joint2=19   Joint3=24   Joint4=23
   Area=37   NumJoints=4   Joint1=19   Joint2=20   Joint3=25   Joint4=24
   Area=38   NumJoints=4   Joint1=27   Joint2=28   Joint3=33   Joint4=32
   Area=39   NumJoints=4   Joint1=28   Joint2=29   Joint3=34   Joint4=33
   Area=40   NumJoints=4   Joint1=29   Joint2=30   Joint3=35   Joint4=34
   Area=41   NumJoints=4   Joint1=30   Joint2=31   Joint3=36   Joint4=35
# ... 124 like lines cut
 
TABLE:  "COORDINATE SYSTEMS"
   Name=GLOBAL   Type=Cartesian   X=0   Y=0   Z=0   AboutZ=0   AboutY=0   AboutX=0
 
TABLE:  "DATABASE FORMAT TYPES"
   UnitsCurr=Yes   OverrideE=No
 
TABLE:  "FRAME SECTION ASSIGNMENTS"
   Frame=1   AutoSelect=N.A.   AnalSect=SEC1   MatProp=Default
   Frame=2   AutoSelect=N.A.   AnalSect=SEC1   MatProp=Default
   Frame=3   AutoSelect=N.A.   AnalSect=SEC1   MatProp=Default
   Frame=4   AutoSelect=N.A.   AnalSect=SEC1   MatProp=Default
   Frame=5   AutoSelect=N.A.   AnalSect=SEC1   MatProp=Default
   Frame=6   AutoSelect=N.A.   AnalSect=SEC1   MatProp=Default
   Frame=7   AutoSelect=N.A.   AnalSect=SEC1   MatProp=Default
   Frame=8   AutoSelect=N.A.   AnalSect=SEC1   MatProp=Default
   Frame=9   AutoSelect=N.A.   AnalSect=SEC1   MatProp=Default
   Frame=10   AutoSelect=N.A.   AnalSect=SEC2   MatProp=Default
   Frame=11   AutoSelect=N.A.   AnalSect=SEC2   MatProp=Default
   Frame=12   AutoSelect=N.A.   AnalSect=SEC2   MatProp=Default
   Frame=13   AutoSelect=N.A.   AnalSect=SEC2   MatProp=Default
   Frame=14   AutoSelect=N.A.   AnalSect=SEC2   MatProp=Default
   Frame=15   AutoSelect=N.A.   AnalSect=SEC2   MatProp=Default
   Frame=16   AutoSelect=N.A.   AnalSect=SEC2   MatProp=Default
   Frame=17   AutoSelect=N.A.   AnalSect=SEC2   MatProp=Default
   Frame=18   AutoSelect=N.A.   AnalSect=SEC2   MatProp=Default
   Frame=19   AutoSelect=N.A.   AnalSect=SEC2   MatProp=Default
   Frame=20   AutoSelect=N.A.   AnalSect=SEC2   MatProp=Default
   Frame=21   AutoSelect=N.A.   AnalSect=SEC2   MatProp=Default
 
TABLE:  "FRAME SECTION PROPERTIES 01 - GENERAL"
   SectionName=SEC1   Material=MAT_24855000_n0.2000   Shape=General   t3=0.3999996875   t2=0.4000003125   Area=0.16   TorsConst=0.00360533   I33=0.00213333   I22=0.00213333   I23=0   AS2=0.1333333333   AS3=0.1333333333 _
        Color=Blue   FromFile=No   AMod=1   A2Mod=1   A3Mod=1   JMod=1   I2Mod=1   I3Mod=1   MMod=1   WMod=1
   SectionName=SEC2   Material=MAT_24855000_n0.2000   Shape=General   t3=0.3999995   t2=0.2500003125   Area=0.1   TorsConst=0.00127345   I33=0.00133333   I22=5.20833000e-4   I23=0   AS2=0.08333333333   AS3=0.08333333333 _
        Color=Blue   FromFile=No   AMod=1   A2Mod=1   A3Mod=1   JMod=1   I2Mod=1   I3Mod=1   MMod=1   WMod=1
 
TABLE:  "AREA SECTION ASSIGNMENTS"
   Area=22   Section=SSEC1   MatProp=Default
   Area=23   Section=SSEC1   MatProp=Default
   Area=24   Section=SSEC1   MatProp=Default
   Area=25   Section=SSEC1   MatProp=Default
   Area=26   Section=SSEC1   MatProp=Default
   Area=27   Section=SSEC1   MatProp=Default
   Area=28   Section=SSEC1   MatProp=Default
   Area=29   Section=SSEC1   MatProp=Default
   Area=30   Section=SSEC1   MatProp=Default
   Area=31   Section=SSEC1   MatProp=Default
   Area=32   Section=SSEC1   MatProp=Default
   Area=33   Section=SSEC1   MatProp=Default
   Area=34   Section=SSEC1   MatProp=Default
   Area=35   Section=SSEC1   MatProp=Default
   Area=36   Section=SSEC1   MatProp=Default
   Area=37   Section=SSEC1   MatProp=Default
   Area=38   Section=SSEC1   MatProp=Default
   Area=39   Section=SSEC1   MatProp=Default
   Area=40   Section=SSEC1   MatProp=Default
   Area=41   Section=SSEC1   MatProp=Default
# ... 124 like lines cut
 
TABLE:  "AREA SECTION PROPERTIES"
   Section=SSEC1   Material=MAT_24855000_n0.2000   MatAngle=0   AreaType=Shell   Type=Shell-Thick   DrillDOF=Yes   Thickness=0.3   BendThick=0.3   Color=Cyan
 
TABLE:  "JOINT COORDINATES"
   Joint=1   CoordSys=GLOBAL   CoordType=Cartesian   XorR=-0.65   Y=-0.65   Z=-0.5   SpecialJt=No
   Joint=2   CoordSys=GLOBAL   CoordType=Cartesian   XorR=-0.325   Y=-0.65   Z=-0.5   SpecialJt=No
   Joint=3   CoordSys=GLOBAL   CoordType=Cartesian   XorR=0   Y=-0.65   Z=-0.5   SpecialJt=No
   Joint=4   CoordSys=GLOBAL   CoordType=Cartesian   XorR=0.325   Y=-0.65   Z=-0.5   SpecialJt=No
   Joint=5   CoordSys=GLOBAL   CoordType=Cartesian   XorR=0.65   Y=-0.65   Z=-0.5   SpecialJt=No
   Joint=6   CoordSys=GLOBAL   CoordType=Cartesian   XorR=-0.65   Y=-0.325   Z=-0.5   SpecialJt=No
   Joint=7   CoordSys=GLOBAL   CoordType=Cartesian   XorR=-0.325   Y=-0.325   Z=-0.5   SpecialJt=No
   Joint=8   CoordSys=GLOBAL   CoordType=Cartesian   XorR=0   Y=-0.325   Z=-0.5   SpecialJt=No
   Joint=9   CoordSys=GLOBAL   CoordType=Cartesian   XorR=0.325   Y=-0.325   Z=-0.5   SpecialJt=No
   Joint=10   CoordSys=GLOBAL   CoordType=Cartesian   XorR=0.65   Y=-0.325   Z=-0.5   SpecialJt=No
   Joint=11   CoordSys=GLOBAL   CoordType=Cartesian   XorR=-0.65   Y=0   Z=-0.5   SpecialJt=No
   Joint=12   CoordSys=GLOBAL   CoordType=Cartesian   XorR=-0.325   Y=0   Z=-0.5   SpecialJt=No
   Joint=13   CoordSys=GLOBAL   CoordType=Cartesian   XorR=0   Y=0   Z=-0.5   SpecialJt=No
   Joint=14   CoordSys=GLOBAL   CoordType=Cartesian   XorR=0.325   Y=0   Z=-0.5   SpecialJt=No
   Joint=15   CoordSys=GLOBAL   CoordType=Cartesian   XorR=0.65   Y=0   Z=-0.5   SpecialJt=No
   Joint=16   CoordSys=GLOBAL   CoordType=Cartesian   XorR=-0.65   Y=0.325   Z=-0.5   SpecialJt=No
   Joint=17   CoordSys=GLOBAL   CoordType=Cartesian   XorR=-0.325   Y=0.325   Z=-0.5   SpecialJt=No
   Joint=18   CoordSys=GLOBAL   CoordType=Cartesian   XorR=0   Y=0.325   Z=-0.5   SpecialJt=No
   Joint=19   CoordSys=GLOBAL   CoordType=Cartesian   XorR=0.325   Y=0.325   Z=-0.5   SpecialJt=No
   Joint=20   CoordSys=GLOBAL   CoordType=Cartesian   XorR=0.65   Y=0.325   Z=-0.5   SpecialJt=No
# ... 214 like lines cut
 
TABLE:  "JOINT RESTRAINT ASSIGNMENTS"
   Joint=130   U1=Yes   U2=Yes   U3=No   R1=No   R2=No   R3=Yes
 
TABLE:  "JOINT SPRING ASSIGNMENTS 1 - UNCOUPLED"
   Joint=1   CoordSys=Global   U1=0   U2=0   U3=27.1984   R1=0   R2=0   R3=0
   Joint=2   CoordSys=Global   U1=0   U2=0   U3=54.3969   R1=0   R2=0   R3=0
   Joint=3   CoordSys=Global   U1=0   U2=0   U3=54.3969   R1=0   R2=0   R3=0
   Joint=4   CoordSys=Global   U1=0   U2=0   U3=54.3969   R1=0   R2=0   R3=0
   Joint=5   CoordSys=Global   U1=0   U2=0   U3=27.1984   R1=0   R2=0   R3=0
   Joint=6   CoordSys=Global   U1=0   U2=0   U3=54.3969   R1=0   R2=0   R3=0
   Joint=7   CoordSys=Global   U1=0   U2=0   U3=108.794   R1=0   R2=0   R3=0
   Joint=8   CoordSys=Global   U1=0   U2=0   U3=108.794   R1=0   R2=0   R3=0
   Joint=9   CoordSys=Global   U1=0   U2=0   U3=108.794   R1=0   R2=0   R3=0
   Joint=10   CoordSys=Global   U1=0   U2=0   U3=54.3969   R1=0   R2=0   R3=0
   Joint=11   CoordSys=Global   U1=0   U2=0   U3=54.3969   R1=0   R2=0   R3=0
   Joint=12   CoordSys=Global   U1=0   U2=0   U3=108.794   R1=0   R2=0   R3=0
   Joint=13   CoordSys=Global   U1=0   U2=0   U3=108.794   R1=0   R2=0   R3=0
   Joint=14   CoordSys=Global   U1=0   U2=0   U3=108.794   R1=0   R2=0   R3=0
   Joint=15   CoordSys=Global   U1=0   U2=0   U3=54.3969   R1=0   R2=0   R3=0
   Joint=16   CoordSys=Global   U1=0   U2=0   U3=54.3969   R1=0   R2=0   R3=0
   Joint=17   CoordSys=Global   U1=0   U2=0   U3=108.794   R1=0   R2=0   R3=0
   Joint=18   CoordSys=Global   U1=0   U2=0   U3=108.794   R1=0   R2=0   R3=0
   Joint=19   CoordSys=Global   U1=0   U2=0   U3=108.794   R1=0   R2=0   R3=0
   Joint=20   CoordSys=Global   U1=0   U2=0   U3=54.3969   R1=0   R2=0   R3=0
# ... 205 like lines cut
 
TABLE:  "LOAD PATTERN DEFINITIONS"
   LoadPat=DEAD   DesignType=Dead   SelfWtMult=0
 
TABLE:  "LOAD CASE DEFINITIONS"
   Case=DEAD   Type=LinStatic   InitialCond=Zero   DesTypeOpt="Prog Det"   DesignType=Dead   DesActOpt="Prog Det"   DesignAct=Non-Composite   AutoType=None   RunCase=Yes
 
TABLE:  "CASE - STATIC 1 - LOAD ASSIGNMENTS"
   Case=DEAD   LoadType="Load pattern"   LoadName=DEAD   LoadSF=1
 
TABLE:  "JOINT LOADS - FORCE"
   Joint=26   LoadPat=DEAD   CoordSys=GLOBAL   F1=0   F2=0   F3=-19.49417577   M1=3.275827775   M2=27.42090222   M3=0
   Joint=52   LoadPat=DEAD   CoordSys=GLOBAL   F1=0   F2=0   F3=-39.79420844   M1=-4.997060235   M2=25.2864   M3=0
   Joint=78   LoadPat=DEAD   CoordSys=GLOBAL   F1=0   F2=0   F3=-48.58170577   M1=-13.27877222   M2=17.46699778   M3=0
   Joint=104   LoadPat=DEAD   CoordSys=GLOBAL   F1=0   F2=0   F3=-29.96110844   M1=9.22413   M2=17.73300222   M3=0
   Joint=130   LoadPat=DEAD   CoordSys=GLOBAL   F1=0   F2=0   F3=-45.94721111   M1=0.00294199   M2=14.3971   M3=0
   Joint=156   LoadPat=DEAD   CoordSys=GLOBAL   F1=0   F2=0   F3=-49.96080844   M1=-9.22708   M2=7.735897775   M3=0
   Joint=182   LoadPat=DEAD   CoordSys=GLOBAL   F1=0   F2=0   F3=-25.60270577   M1=13.26995222   M2=8.437232225   M3=0
   Joint=208   LoadPat=DEAD   CoordSys=GLOBAL   F1=0   F2=0   F3=-39.94530844   M1=5.002944215   M2=3.99425   M3=0
   Joint=234   LoadPat=DEAD   CoordSys=GLOBAL   F1=0   F2=0   F3=-42.31720577   M1=-3.272887775   M2=-1.562772225   M3=0
   Joint=13   LoadPat=DEAD   CoordSys=GLOBAL   F1=0   F2=0   F3=-1.720500765   M1=0   M2=0   M3=0
   Joint=39   LoadPat=DEAD   CoordSys=GLOBAL   F1=0   F2=0   F3=-3.138001396   M1=0   M2=0   M3=0
   Joint=65   LoadPat=DEAD   CoordSys=GLOBAL   F1=0   F2=0   F3=-1.720500765   M1=0   M2=0   M3=0
   Joint=91   LoadPat=DEAD   CoordSys=GLOBAL   F1=0   F2=0   F3=-3.138001396   M1=0   M2=0   M3=0
   Joint=117   LoadPat=DEAD   CoordSys=GLOBAL   F1=0   F2=0   F3=-2.11200094   M1=0   M2=0   M3=0
   Joint=143   LoadPat=DEAD   CoordSys=GLOBAL   F1=0   F2=0   F3=-3.138001396   M1=0   M2=0   M3=0
   Joint=169   LoadPat=DEAD   CoordSys=GLOBAL   F1=0   F2=0   F3=-1.720500765   M1=0   M2=0   M3=0
   Joint=195   LoadPat=DEAD   CoordSys=GLOBAL   F1=0   F2=0   F3=-3.138001396   M1=0   M2=0   M3=0
   Joint=221   LoadPat=DEAD   CoordSys=GLOBAL   F1=0   F2=0   F3=-1.720500765   M1=0   M2=0   M3=0
   Joint=1   LoadPat=DEAD   CoordSys=GLOBAL   F1=0   F2=0   F3=-0.1901250846   M1=0   M2=0   M3=0
   Joint=2   LoadPat=DEAD   CoordSys=GLOBAL   F1=0   F2=0   F3=-0.3802501692   M1=0   M2=0   M3=0
# ... 214 like lines cut
 
TABLE:  "MATERIAL PROPERTIES 01 - GENERAL"
   Material=MAT_24855000_n0.2000   Type=Concrete   SymType=Isotropic   TempDepend=No   Color=Green
 
TABLE:  "MATERIAL PROPERTIES 02 - BASIC MECHANICAL PROPERTIES"
   Material=MAT_24855000_n0.2000   UnitWeight=24.0082092   UnitMass=2.44732   E1=2.48550000e+7   G12=1.03562500e+7   U12=0.2   A1=9.9E-06
 
TABLE:  "MATERIAL PROPERTIES 03B - CONCRETE DATA"
   Material=MAT_24855000_n0.2000   Fc=27579   eFc=27579   LtWtConc=No   SSCurveOpt=Mander   SSHysType=Takeda   SFc=0.00222   SCap=0.005   FinalSlope=-0.1   FAngle=0   DAngle=0
 
TABLE:  "PROGRAM CONTROL"
   ProgramName=SAP2000   Version=24.1.0   CurrUnits="KN, m, C"   SteelCode="AISC 360-16"   ConcCode="ACI 318-19"   AlumCode="AA 2015"   ColdCode=AISI-16   RegenHinge=Yes
 
END TABLE DATA
