File 📐 Plantillas — nuevo modelo (pórtico 2D / 3D / con losa).$2k was saved on m/d/yy at h:mm:ss
 
TABLE:  "ACTIVE DEGREES OF FREEDOM"
   UX=Yes   UY=Yes   UZ=Yes   RX=Yes   RY=Yes   RZ=Yes
 
TABLE:  "CONNECTIVITY - FRAME"
   Frame=1   JointI=1   JointJ=25   IsCurved=No
   Frame=2   JointI=6   JointJ=30   IsCurved=No
   Frame=3   JointI=7   JointJ=35   IsCurved=No
   Frame=4   JointI=8   JointJ=40   IsCurved=No
   Frame=5   JointI=9   JointJ=105   IsCurved=No
   Frame=6   JointI=10   JointJ=110   IsCurved=No
   Frame=7   JointI=11   JointJ=115   IsCurved=No
   Frame=8   JointI=12   JointJ=120   IsCurved=No
   Frame=9   JointI=13   JointJ=185   IsCurved=No
   Frame=10   JointI=14   JointJ=190   IsCurved=No
   Frame=11   JointI=15   JointJ=195   IsCurved=No
   Frame=12   JointI=16   JointJ=200   IsCurved=No
   Frame=13   JointI=17   JointJ=265   IsCurved=No
   Frame=14   JointI=22   JointJ=270   IsCurved=No
   Frame=15   JointI=23   JointJ=275   IsCurved=No
   Frame=16   JointI=24   JointJ=280   IsCurved=No
   Frame=17   JointI=25   JointJ=26   IsCurved=No
   Frame=18   JointI=26   JointJ=27   IsCurved=No
   Frame=19   JointI=27   JointJ=28   IsCurved=No
   Frame=20   JointI=28   JointJ=29   IsCurved=No
# ... 116 like lines cut
 
TABLE:  "CONNECTIVITY - AREA"
   Area=137   NumJoints=4   Joint1=25   Joint2=26   Joint3=42   Joint4=41
   Area=138   NumJoints=4   Joint1=26   Joint2=27   Joint3=43   Joint4=42
   Area=139   NumJoints=4   Joint1=27   Joint2=28   Joint3=44   Joint4=43
   Area=140   NumJoints=4   Joint1=28   Joint2=29   Joint3=45   Joint4=44
   Area=141   NumJoints=4   Joint1=29   Joint2=30   Joint3=46   Joint4=45
   Area=142   NumJoints=4   Joint1=30   Joint2=31   Joint3=47   Joint4=46
   Area=143   NumJoints=4   Joint1=31   Joint2=32   Joint3=48   Joint4=47
   Area=144   NumJoints=4   Joint1=32   Joint2=33   Joint3=49   Joint4=48
   Area=145   NumJoints=4   Joint1=33   Joint2=34   Joint3=50   Joint4=49
   Area=146   NumJoints=4   Joint1=34   Joint2=35   Joint3=51   Joint4=50
   Area=147   NumJoints=4   Joint1=35   Joint2=36   Joint3=52   Joint4=51
   Area=148   NumJoints=4   Joint1=36   Joint2=37   Joint3=53   Joint4=52
   Area=149   NumJoints=4   Joint1=37   Joint2=38   Joint3=54   Joint4=53
   Area=150   NumJoints=4   Joint1=38   Joint2=39   Joint3=55   Joint4=54
   Area=151   NumJoints=4   Joint1=39   Joint2=40   Joint3=56   Joint4=55
   Area=152   NumJoints=4   Joint1=41   Joint2=42   Joint3=58   Joint4=57
   Area=153   NumJoints=4   Joint1=42   Joint2=43   Joint3=59   Joint4=58
   Area=154   NumJoints=4   Joint1=43   Joint2=44   Joint3=60   Joint4=59
   Area=155   NumJoints=4   Joint1=44   Joint2=45   Joint3=61   Joint4=60
   Area=156   NumJoints=4   Joint1=45   Joint2=46   Joint3=62   Joint4=61
# ... 215 like lines cut
 
TABLE:  "COORDINATE SYSTEMS"
   Name=GLOBAL   Type=Cartesian   X=0   Y=0   Z=0   AboutZ=0   AboutY=0   AboutX=0
 
TABLE:  "DATABASE FORMAT TYPES"
   UnitsCurr=Yes   OverrideE=No
 
TABLE:  "FRAME SECTION ASSIGNMENTS"
   Frame=1   AutoSelect=N.A.   AnalSect=SEC1   MatProp=Default
   Frame=2   AutoSelect=N.A.   AnalSect=SEC1   MatProp=Default
   Frame=3   AutoSelect=N.A.   AnalSect=SEC1   MatProp=Default
   Frame=4   AutoSelect=N.A.   AnalSect=SEC1   MatProp=Default
   Frame=5   AutoSelect=N.A.   AnalSect=SEC1   MatProp=Default
   Frame=6   AutoSelect=N.A.   AnalSect=SEC1   MatProp=Default
   Frame=7   AutoSelect=N.A.   AnalSect=SEC1   MatProp=Default
   Frame=8   AutoSelect=N.A.   AnalSect=SEC1   MatProp=Default
   Frame=9   AutoSelect=N.A.   AnalSect=SEC1   MatProp=Default
   Frame=10   AutoSelect=N.A.   AnalSect=SEC1   MatProp=Default
   Frame=11   AutoSelect=N.A.   AnalSect=SEC1   MatProp=Default
   Frame=12   AutoSelect=N.A.   AnalSect=SEC1   MatProp=Default
   Frame=13   AutoSelect=N.A.   AnalSect=SEC1   MatProp=Default
   Frame=14   AutoSelect=N.A.   AnalSect=SEC1   MatProp=Default
   Frame=15   AutoSelect=N.A.   AnalSect=SEC1   MatProp=Default
   Frame=16   AutoSelect=N.A.   AnalSect=SEC1   MatProp=Default
   Frame=17   AutoSelect=N.A.   AnalSect=SEC2   MatProp=Default
   Frame=18   AutoSelect=N.A.   AnalSect=SEC2   MatProp=Default
   Frame=19   AutoSelect=N.A.   AnalSect=SEC2   MatProp=Default
   Frame=20   AutoSelect=N.A.   AnalSect=SEC2   MatProp=Default
# ... 116 like lines cut
 
TABLE:  "FRAME SECTION PROPERTIES 01 - GENERAL"
   SectionName=SEC1   Material=MAT_22940519_n0.2000   Shape=General   t3=0.4   t2=0.4   Area=0.16   TorsConst=0.0036096   I33=0.002133333333   I22=0.002133333333   I23=0   AS2=0.1333333333   AS3=0.1333333333 _
        Color=Blue   FromFile=No   AMod=1   A2Mod=1   A3Mod=1   JMod=1   I2Mod=1   I3Mod=1   MMod=1   WMod=1
   SectionName=SEC2   Material=MAT_22940519_n0.2000   Shape=General   t3=0.5   t2=0.3   Area=0.15   TorsConst=0.00425   I33=0.003125   I22=0.001125   I23=0   AS2=0.125   AS3=0.125 _
        Color=Blue   FromFile=No   AMod=1   A2Mod=1   A3Mod=1   JMod=1   I2Mod=1   I3Mod=1   MMod=1   WMod=1
 
TABLE:  "AREA SECTION ASSIGNMENTS"
   Area=137   Section=SSEC1   MatProp=Default
   Area=138   Section=SSEC1   MatProp=Default
   Area=139   Section=SSEC1   MatProp=Default
   Area=140   Section=SSEC1   MatProp=Default
   Area=141   Section=SSEC1   MatProp=Default
   Area=142   Section=SSEC1   MatProp=Default
   Area=143   Section=SSEC1   MatProp=Default
   Area=144   Section=SSEC1   MatProp=Default
   Area=145   Section=SSEC1   MatProp=Default
   Area=146   Section=SSEC1   MatProp=Default
   Area=147   Section=SSEC1   MatProp=Default
   Area=148   Section=SSEC1   MatProp=Default
   Area=149   Section=SSEC1   MatProp=Default
   Area=150   Section=SSEC1   MatProp=Default
   Area=151   Section=SSEC1   MatProp=Default
   Area=152   Section=SSEC1   MatProp=Default
   Area=153   Section=SSEC1   MatProp=Default
   Area=154   Section=SSEC1   MatProp=Default
   Area=155   Section=SSEC1   MatProp=Default
   Area=156   Section=SSEC1   MatProp=Default
# ... 215 like lines cut
 
TABLE:  "AREA SECTION PROPERTIES"
   Section=SSEC1   Material=MAT_22940519_n0.2000   MatAngle=0   AreaType=Shell   Type=Shell-Thin   DrillDOF=Yes   Thickness=0.2   BendThick=0.2   Color=Cyan
   Section=SSEC2   Material=MAT_22940519_n0.2000   MatAngle=0   AreaType=Shell   Type=Shell-Thin   DrillDOF=Yes   Thickness=0.25   BendThick=0.25   Color=Cyan
 
TABLE:  "JOINT COORDINATES"
   Joint=1   CoordSys=GLOBAL   CoordType=Cartesian   XorR=0   Y=0   Z=0   SpecialJt=No
   Joint=2   CoordSys=GLOBAL   CoordType=Cartesian   XorR=1.2   Y=0   Z=0   SpecialJt=No
   Joint=3   CoordSys=GLOBAL   CoordType=Cartesian   XorR=2.4   Y=0   Z=0   SpecialJt=No
   Joint=4   CoordSys=GLOBAL   CoordType=Cartesian   XorR=3.6   Y=0   Z=0   SpecialJt=No
   Joint=5   CoordSys=GLOBAL   CoordType=Cartesian   XorR=4.8   Y=0   Z=0   SpecialJt=No
   Joint=6   CoordSys=GLOBAL   CoordType=Cartesian   XorR=6   Y=0   Z=0   SpecialJt=No
   Joint=7   CoordSys=GLOBAL   CoordType=Cartesian   XorR=12   Y=0   Z=0   SpecialJt=No
   Joint=8   CoordSys=GLOBAL   CoordType=Cartesian   XorR=18   Y=0   Z=0   SpecialJt=No
   Joint=9   CoordSys=GLOBAL   CoordType=Cartesian   XorR=0   Y=6   Z=0   SpecialJt=No
   Joint=10   CoordSys=GLOBAL   CoordType=Cartesian   XorR=6   Y=6   Z=0   SpecialJt=No
   Joint=11   CoordSys=GLOBAL   CoordType=Cartesian   XorR=12   Y=6   Z=0   SpecialJt=No
   Joint=12   CoordSys=GLOBAL   CoordType=Cartesian   XorR=18   Y=6   Z=0   SpecialJt=No
   Joint=13   CoordSys=GLOBAL   CoordType=Cartesian   XorR=0   Y=12   Z=0   SpecialJt=No
   Joint=14   CoordSys=GLOBAL   CoordType=Cartesian   XorR=6   Y=12   Z=0   SpecialJt=No
   Joint=15   CoordSys=GLOBAL   CoordType=Cartesian   XorR=12   Y=12   Z=0   SpecialJt=No
   Joint=16   CoordSys=GLOBAL   CoordType=Cartesian   XorR=18   Y=12   Z=0   SpecialJt=No
   Joint=17   CoordSys=GLOBAL   CoordType=Cartesian   XorR=0   Y=18   Z=0   SpecialJt=No
   Joint=18   CoordSys=GLOBAL   CoordType=Cartesian   XorR=1.2   Y=18   Z=0   SpecialJt=No
   Joint=19   CoordSys=GLOBAL   CoordType=Cartesian   XorR=2.4   Y=18   Z=0   SpecialJt=No
   Joint=20   CoordSys=GLOBAL   CoordType=Cartesian   XorR=3.6   Y=18   Z=0   SpecialJt=No
# ... 260 like lines cut
 
TABLE:  "JOINT RESTRAINT ASSIGNMENTS"
   Joint=1   U1=Yes   U2=Yes   U3=Yes   R1=Yes   R2=Yes   R3=Yes
   Joint=2   U1=Yes   U2=Yes   U3=Yes   R1=Yes   R2=Yes   R3=Yes
   Joint=3   U1=Yes   U2=Yes   U3=Yes   R1=Yes   R2=Yes   R3=Yes
   Joint=4   U1=Yes   U2=Yes   U3=Yes   R1=Yes   R2=Yes   R3=Yes
   Joint=5   U1=Yes   U2=Yes   U3=Yes   R1=Yes   R2=Yes   R3=Yes
   Joint=6   U1=Yes   U2=Yes   U3=Yes   R1=Yes   R2=Yes   R3=Yes
   Joint=7   U1=Yes   U2=Yes   U3=Yes   R1=Yes   R2=Yes   R3=Yes
   Joint=8   U1=Yes   U2=Yes   U3=Yes   R1=Yes   R2=Yes   R3=Yes
   Joint=9   U1=Yes   U2=Yes   U3=Yes   R1=Yes   R2=Yes   R3=Yes
   Joint=10   U1=Yes   U2=Yes   U3=Yes   R1=Yes   R2=Yes   R3=Yes
   Joint=11   U1=Yes   U2=Yes   U3=Yes   R1=Yes   R2=Yes   R3=Yes
   Joint=12   U1=Yes   U2=Yes   U3=Yes   R1=Yes   R2=Yes   R3=Yes
   Joint=13   U1=Yes   U2=Yes   U3=Yes   R1=Yes   R2=Yes   R3=Yes
   Joint=14   U1=Yes   U2=Yes   U3=Yes   R1=Yes   R2=Yes   R3=Yes
   Joint=15   U1=Yes   U2=Yes   U3=Yes   R1=Yes   R2=Yes   R3=Yes
   Joint=16   U1=Yes   U2=Yes   U3=Yes   R1=Yes   R2=Yes   R3=Yes
   Joint=17   U1=Yes   U2=Yes   U3=Yes   R1=Yes   R2=Yes   R3=Yes
   Joint=18   U1=Yes   U2=Yes   U3=Yes   R1=Yes   R2=Yes   R3=Yes
   Joint=19   U1=Yes   U2=Yes   U3=Yes   R1=Yes   R2=Yes   R3=Yes
   Joint=20   U1=Yes   U2=Yes   U3=Yes   R1=Yes   R2=Yes   R3=Yes
# ... 4 like lines cut
 
TABLE:  "LOAD PATTERN DEFINITIONS"
   LoadPat=DEAD   DesignType=Dead   SelfWtMult=0
 
TABLE:  "LOAD CASE DEFINITIONS"
   Case=DEAD   Type=LinStatic   InitialCond=Zero   DesTypeOpt="Prog Det"   DesignType=Dead   DesActOpt="Prog Det"   DesignAct=Non-Composite   AutoType=None   RunCase=Yes
 
TABLE:  "CASE - STATIC 1 - LOAD ASSIGNMENTS"
   Case=DEAD   LoadType="Load pattern"   LoadName=DEAD   LoadSF=1
 
TABLE:  "JOINT LOADS - FORCE"
   Joint=25   LoadPat=DEAD   CoordSys=GLOBAL   F1=0   F2=0   F3=-1.8   M1=0   M2=0   M3=0
   Joint=26   LoadPat=DEAD   CoordSys=GLOBAL   F1=0   F2=0   F3=-3.6   M1=0   M2=0   M3=0
   Joint=42   LoadPat=DEAD   CoordSys=GLOBAL   F1=0   F2=0   F3=-7.2   M1=0   M2=0   M3=0
   Joint=41   LoadPat=DEAD   CoordSys=GLOBAL   F1=0   F2=0   F3=-3.6   M1=0   M2=0   M3=0
   Joint=27   LoadPat=DEAD   CoordSys=GLOBAL   F1=0   F2=0   F3=-3.6   M1=0   M2=0   M3=0
   Joint=43   LoadPat=DEAD   CoordSys=GLOBAL   F1=0   F2=0   F3=-7.2   M1=0   M2=0   M3=0
   Joint=28   LoadPat=DEAD   CoordSys=GLOBAL   F1=0   F2=0   F3=-3.6   M1=0   M2=0   M3=0
   Joint=44   LoadPat=DEAD   CoordSys=GLOBAL   F1=0   F2=0   F3=-7.2   M1=0   M2=0   M3=0
   Joint=29   LoadPat=DEAD   CoordSys=GLOBAL   F1=0   F2=0   F3=-3.6   M1=0   M2=0   M3=0
   Joint=45   LoadPat=DEAD   CoordSys=GLOBAL   F1=0   F2=0   F3=-7.2   M1=0   M2=0   M3=0
   Joint=30   LoadPat=DEAD   CoordSys=GLOBAL   F1=0   F2=0   F3=-3.6   M1=0   M2=0   M3=0
   Joint=46   LoadPat=DEAD   CoordSys=GLOBAL   F1=0   F2=0   F3=-7.2   M1=0   M2=0   M3=0
   Joint=31   LoadPat=DEAD   CoordSys=GLOBAL   F1=0   F2=0   F3=-3.6   M1=0   M2=0   M3=0
   Joint=47   LoadPat=DEAD   CoordSys=GLOBAL   F1=0   F2=0   F3=-7.2   M1=0   M2=0   M3=0
   Joint=32   LoadPat=DEAD   CoordSys=GLOBAL   F1=0   F2=0   F3=-3.6   M1=0   M2=0   M3=0
   Joint=48   LoadPat=DEAD   CoordSys=GLOBAL   F1=0   F2=0   F3=-7.2   M1=0   M2=0   M3=0
   Joint=33   LoadPat=DEAD   CoordSys=GLOBAL   F1=0   F2=0   F3=-3.6   M1=0   M2=0   M3=0
   Joint=49   LoadPat=DEAD   CoordSys=GLOBAL   F1=0   F2=0   F3=-7.2   M1=0   M2=0   M3=0
   Joint=34   LoadPat=DEAD   CoordSys=GLOBAL   F1=0   F2=0   F3=-3.6   M1=0   M2=0   M3=0
   Joint=50   LoadPat=DEAD   CoordSys=GLOBAL   F1=0   F2=0   F3=-7.2   M1=0   M2=0   M3=0
# ... 236 like lines cut
 
TABLE:  "MATERIAL PROPERTIES 01 - GENERAL"
   Material=MAT_22940519_n0.2000   Type=Concrete   SymType=Isotropic   TempDepend=No   Color=Green
 
TABLE:  "MATERIAL PROPERTIES 02 - BASIC MECHANICAL PROPERTIES"
   Material=MAT_22940519_n0.2000   UnitWeight=24.00819852   UnitMass=2.447318911   E1=2.29405192e+7   G12=9.55854969e+6   U12=0.2   A1=9.9E-06
 
TABLE:  "MATERIAL PROPERTIES 03B - CONCRETE DATA"
   Material=MAT_22940519_n0.2000   Fc=27579   eFc=27579   LtWtConc=No   SSCurveOpt=Mander   SSHysType=Takeda   SFc=0.00222   SCap=0.005   FinalSlope=-0.1   FAngle=0   DAngle=0
 
TABLE:  "PROGRAM CONTROL"
   ProgramName=SAP2000   Version=24.1.0   CurrUnits="KN, m, C"   SteelCode="AISC 360-16"   ConcCode="ACI 318-19"   AlumCode="AA 2015"   ColdCode=AISI-16   RegenHinge=Yes
 
END TABLE DATA
